Circuit: *Network

Fatal Error: Unknown SPICE device type "2" in "253 "jonggak" 37.570278 126.983056 0"
